Circuit: * H:\One Drive Unitn\OneDrive - studenti.unitn.it\FSAE\Schematics\BMS_HV\RelayDetection\Draft1.asc

Limiting rise time of source v1 to 0.01
Limiting fall time of source v1 to 0.01
Direct Newton iteration for .op point succeeded.

Date: Fri May 11 08:56:03 2018
Total elapsed time: 0.090 seconds.

tnom = 27
temp = 27
method = modified trap
totiter = 3134
traniter = 3128
tranpoints = 1376
accept = 1281
rejected = 95
matrix size = 9
fillins = 0
solver = Normal
Matrix Compiler1: 456 bytes object code size  1.6/1.5/[1.4]
Matrix Compiler2:      54 opcodes  1.5/[1.4]/1.7

